<?xml version="1.0" encoding="UTF-8"?>

<!-- generated on 2023-04-15 12:05:45 by Eclipse SUMO netedit Version 1.16.0
<configuration xmlns:xsi="http://www.w3.org/2001/XMLSchema-instance" xsi:noNamespaceSchemaLocation="http://sumo.dlr.de/xsd/netconvertConfiguration.xsd">

    <input>
        <sumocfg-file value="C:\Users\volka\Desktop\SUMO\karalama\karalama.sumocfg"/>
        <additional-files value="C:\Users\volka\Desktop\SUMO\karalama\karalama.add.xml"/>
        <route-files value="C:\Users\volka\Desktop\SUMO\karalama\karalama.rou.xml"/>
        <sumo-net-file value="C:\Users\volka\Desktop\SUMO\karalama\karalama.net.xml"/>
    </input>

    <output>
        <output-file value="C:\Users\volka\Desktop\SUMO\karalama\karalama.net.xml"/>
    </output>

    <processing>
        <geometry.min-radius.fix.railways value="false"/>
        <geometry.max-grade.fix value="false"/>
        <offset.disable-normalization value="true"/>
        <lefthand value="0"/>
    </processing>

    <junctions>
        <no-turnarounds value="true"/>
        <junctions.corner-detail value="5"/>
        <junctions.limit-turn-speed value="5.50"/>
        <rectangular-lane-cut value="0"/>
    </junctions>

    <pedestrian>
        <walkingareas value="0"/>
    </pedestrian>

</configuration>
-->

<net version="1.16" junctionCornerDetail="5" limitTurnSpeed="5.50" xmlns:xsi="http://www.w3.org/2001/XMLSchema-instance" xsi:noNamespaceSchemaLocation="http://sumo.dlr.de/xsd/net_file.xsd">

    <location netOffset="0.00,0.00" convBoundary="-9.51,15.24,75.24,85.37" origBoundary="-10000000000.00,-10000000000.00,10000000000.00,10000000000.00" projParameter="!"/>

    <edge id=":J1_0" function="internal">
        <lane id=":J1_0_0" index="0" speed="4.16" length="1.31" shape="11.43,83.26 11.68,83.48 11.96,83.64 12.27,83.73 12.60,83.76"/>
    </edge>
    <edge id=":J2_0" function="internal">
        <lane id=":J2_0_0" index="0" speed="4.28" length="1.19" shape="48.15,83.53 48.50,83.52 48.74,83.46 48.96,83.34 49.22,83.11"/>
    </edge>
    <edge id=":J3_0" function="internal">
        <lane id=":J3_0_0" index="0" speed="4.17" length="1.31" shape="72.66,61.82 72.88,61.57 73.05,61.29 73.15,60.99 73.18,60.66"/>
    </edge>
    <edge id=":J4_0" function="internal">
        <lane id=":J4_0_0" index="0" speed="4.10" length="1.44" shape="73.61,34.56 73.58,34.20 73.48,33.86 73.29,33.57 73.03,33.30"/>
    </edge>
    <edge id=":J5_0" function="internal">
        <lane id=":J5_0_0" index="0" speed="4.31" length="1.16" shape="53.56,17.23 53.29,17.02 53.08,16.91 52.85,16.87 52.51,16.87"/>
    </edge>
    <edge id=":J6_0" function="internal">
        <lane id=":J6_0_0" index="0" speed="4.33" length="1.12" shape="16.07,17.67 15.74,17.69 15.51,17.74 15.31,17.85 15.06,18.06"/>
    </edge>
    <edge id=":J7_0" function="internal">
        <lane id=":J7_0_0" index="0" speed="4.14" length="1.37" shape="-7.24,37.33 -7.48,37.58 -7.66,37.87 -7.76,38.18 -7.80,38.53"/>
    </edge>
    <edge id=":J8_0" function="internal">
        <lane id=":J8_0_0" index="0" speed="4.25" length="1.24" shape="-7.90,62.14 -7.89,62.50 -7.84,62.75 -7.71,62.97 -7.47,63.24"/>
    </edge>

    <edge id="E0" from="J1" to="J2" priority="-1">
        <lane id="E0_0" index="0" speed="13.89" length="35.55" shape="12.60,83.76 48.15,83.53"/>
    </edge>
    <edge id="E1" from="J2" to="J3" priority="-1">
        <lane id="E1_0" index="0" speed="13.89" length="31.67" shape="49.22,83.11 72.66,61.82"/>
    </edge>
    <edge id="E2" from="J3" to="J4" priority="-1">
        <lane id="E2_0" index="0" speed="13.89" length="26.10" shape="73.18,60.66 73.61,34.56"/>
    </edge>
    <edge id="E3" from="J4" to="J5" priority="-1">
        <lane id="E3_0" index="0" speed="13.89" length="25.25" shape="73.03,33.30 53.56,17.23"/>
    </edge>
    <edge id="E4" from="J5" to="J6" priority="-1">
        <lane id="E4_0" index="0" speed="13.89" length="36.45" shape="52.51,16.87 16.07,17.67"/>
    </edge>
    <edge id="E5" from="J6" to="J7" priority="-1">
        <lane id="E5_0" index="0" speed="13.89" length="29.47" shape="15.06,18.06 -7.24,37.33"/>
    </edge>
    <edge id="E6" from="J7" to="J8" priority="-1">
        <lane id="E6_0" index="0" speed="13.89" length="23.60" shape="-7.80,38.53 -7.90,62.14"/>
    </edge>
    <edge id="E7" from="J8" to="J1" priority="-1">
        <lane id="E7_0" index="0" speed="13.89" length="27.53" shape="-7.47,63.24 11.43,83.26"/>
    </edge>

    <junction id="J1" type="priority" x="11.22" y="85.37" incLanes="E7_0" intLanes=":J1_0_0" shape="12.61,85.36 12.59,82.16 10.26,84.36 10.95,84.92 11.33,85.11 11.73,85.25 12.16,85.34">
        <request index="0" response="0" foes="0" cont="0"/>
    </junction>
    <junction id="J2" type="priority" x="49.39" y="85.12" incLanes="E0_0" intLanes=":J2_0_0" shape="50.30,84.30 48.14,81.93 48.17,85.13 49.04,85.08 49.34,85.00 49.62,84.85 49.92,84.62">
        <request index="0" response="0" foes="0" cont="0"/>
    </junction>
    <junction id="J3" type="priority" x="74.76" y="62.07" incLanes="E1_0" intLanes=":J3_0_0" shape="74.78,60.69 71.58,60.63 73.74,63.00 74.31,62.33 74.51,61.96 74.66,61.56 74.75,61.13">
        <request index="0" response="0" foes="0" cont="0"/>
    </junction>
    <junction id="J4" type="priority" x="75.24" y="33.05" incLanes="E2_0" intLanes=":J4_0_0" shape="74.05,32.07 72.01,34.54 75.21,34.59 75.10,33.63 74.94,33.19 74.71,32.79 74.41,32.41">
        <request index="0" response="0" foes="0" cont="0"/>
    </junction>
    <junction id="J5" type="priority" x="53.66" y="15.24" incLanes="E3_0" intLanes=":J5_0_0" shape="52.54,18.47 54.58,16.00 53.90,15.49 53.62,15.36 53.32,15.29 52.95,15.26 52.47,15.27">
        <request index="0" response="0" foes="0" cont="0"/>
    </junction>
    <junction id="J6" type="priority" x="14.88" y="16.10" incLanes="E4_0" intLanes=":J6_0_0" shape="16.10,19.27 16.03,16.07 15.21,16.13 14.92,16.21 14.66,16.34 14.37,16.55 14.01,16.85">
        <request index="0" response="0" foes="0" cont="0"/>
    </junction>
    <junction id="J7" type="priority" x="-9.39" y="37.07" incLanes="E5_0" intLanes=":J7_0_0" shape="-6.20,38.54 -8.29,36.12 -8.90,36.81 -9.12,37.20 -9.27,37.61 -9.36,38.05 -9.40,38.53">
        <request index="0" response="0" foes="0" cont="0"/>
    </junction>
    <junction id="J8" type="priority" x="-9.51" y="63.41" incLanes="E6_0" intLanes=":J8_0_0" shape="-8.63,64.34 -6.30,62.14 -9.50,62.13 -9.46,63.04 -9.38,63.36 -9.22,63.65 -8.98,63.96">
        <request index="0" response="0" foes="0" cont="0"/>
    </junction>

    <connection from="E0" to="E1" fromLane="0" toLane="0" via=":J2_0_0" dir="s" state="M"/>
    <connection from="E1" to="E2" fromLane="0" toLane="0" via=":J3_0_0" dir="r" state="M"/>
    <connection from="E2" to="E3" fromLane="0" toLane="0" via=":J4_0_0" dir="r" state="M"/>
    <connection from="E3" to="E4" fromLane="0" toLane="0" via=":J5_0_0" dir="s" state="M"/>
    <connection from="E4" to="E5" fromLane="0" toLane="0" via=":J6_0_0" dir="s" state="M"/>
    <connection from="E5" to="E6" fromLane="0" toLane="0" via=":J7_0_0" dir="r" state="M"/>
    <connection from="E6" to="E7" fromLane="0" toLane="0" via=":J8_0_0" dir="s" state="M"/>
    <connection from="E7" to="E0" fromLane="0" toLane="0" via=":J1_0_0" dir="r" state="M"/>

    <connection from=":J1_0" to="E0" fromLane="0" toLane="0" dir="r" state="M"/>
    <connection from=":J2_0" to="E1" fromLane="0" toLane="0" dir="s" state="M"/>
    <connection from=":J3_0" to="E2" fromLane="0" toLane="0" dir="r" state="M"/>
    <connection from=":J4_0" to="E3" fromLane="0" toLane="0" dir="r" state="M"/>
    <connection from=":J5_0" to="E4" fromLane="0" toLane="0" dir="s" state="M"/>
    <connection from=":J6_0" to="E5" fromLane="0" toLane="0" dir="s" state="M"/>
    <connection from=":J7_0" to="E6" fromLane="0" toLane="0" dir="r" state="M"/>
    <connection from=":J8_0" to="E7" fromLane="0" toLane="0" dir="s" state="M"/>

</net>
