<?xml version="1.0" encoding="UTF-8"?>

<!-- generated on 2023-04-15 12:58:28 by Eclipse SUMO netedit Version 1.16.0
-->

<additional xmlns:xsi="http://www.w3.org/2001/XMLSchema-instance" xsi:noNamespaceSchemaLocation="http://sumo.dlr.de/xsd/additional_file.xsd">
    <!-- StoppingPlaces -->
    <chargingStation id="cs_0" lane="E2_0" startPos="7.02" endPos="17.02"/>
    <!-- Other additionals -->
    <rerouter id="rr_0" edges="E4" pos="42.85,21.26">
        <interval begin="0.00" end="3600.00">
            <destProbReroute id="E0" probability="1.00"/>
        </interval>
    </rerouter>
    <rerouter id="rr_1" edges="E0" pos="27.01,80.27">
        <interval begin="0.00" end="3600.00">
            <destProbReroute id="E4" probability="1.00"/>
        </interval>
    </rerouter>
</additional>
