<?xml version="1.0" encoding="UTF-8"?>

<!-- generated on 2023-04-15 12:58:28 by Eclipse SUMO netedit Version 1.16.0
-->

<routes xmlns:xsi="http://www.w3.org/2001/XMLSchema-instance" xsi:noNamespaceSchemaLocation="http://sumo.dlr.de/xsd/routes_file.xsd">
    <!-- VTypes -->
    <vType id="ElectricVehicle" length="6.00" minGap="2.50" maxSpeed="100.00" color="green" accel="1.0" decel="5.0" sigma="0.0">
        <param key="airDragCoefficient" value="0.33"/>
        <param key="constantPowerIntake" value="40"/>
        <param key="frontSurfaceArea" value="2.2"/>
        <param key="internalMomentOfInertia" value="30"/>
        <param key="maximumBatteryCapacity" value="35000"/>
        <param key="maximumPower" value="100000"/>
        <param key="propulsionEfficiency" value="0.8"/>
        <param key="radialDragCoefficient" value="0"/>
        <param key="recuperationEfficiency" value="0.8"/>
        <param key="rollDragCoefficient" value="0.1"/>
        <param key="vehicleMass" value="1600"/>
    </vType>
    <!-- Routes -->
    <route id="r_0" edges="E0 E1 E2 E3 E4"/>
    <!-- Vehicles, persons and containers (sorted by depart) -->
    <vehicle id="v_0" type="ElectricVehicle" depart="0.00" route="r_0">
        <param key="actualBatteryCapacity" value="100"/>
    </vehicle>
</routes>
