<?xml version="1.0" encoding="UTF-8"?>

<!-- generated on 2023-04-14 22:34:23 by Eclipse SUMO sumo Version 1.16.0
-->

<configuration xmlns:xsi="http://www.w3.org/2001/XMLSchema-instance" xsi:noNamespaceSchemaLocation="http://sumo.dlr.de/xsd/sumoConfiguration.xsd">

    <input>
        <net-file value="karalama.net.xml"/>
        <route-files value="karalama.rou.xml"/>
        <additional-files value="karalama.add.xml"/>
    </input>

    <battery>
        <device.battery.probability value="1"/>
    </battery>

</configuration>
