<?xml version="1.0" encoding="UTF-8"?>

<!-- generated on 2023-05-19 22:29:54 by Eclipse SUMO netedit Version 1.16.0
-->

<additional xmlns:xsi="http://www.w3.org/2001/XMLSchema-instance" xsi:noNamespaceSchemaLocation="http://sumo.dlr.de/xsd/additional_file.xsd">
    <!-- StoppingPlaces -->
    <chargingStation id="cs_0" lane="E20_0" startPos="8.11" endPos="18.11" power="10000.00" efficiency="1.00"/>
    <chargingStation id="cs_1" lane="E43_0" startPos="12.60" endPos="22.60" power="10000.00" efficiency="1.00"/>
    <chargingStation id="cs_2" lane="E39_0" startPos="12.87" endPos="22.87" power="10000.00" efficiency="1.00"/>
    <chargingStation id="cs_3" lane="E46_0" startPos="8.56" endPos="18.56" power="10000.00" efficiency="1.00"/>
    <chargingStation id="cs_4" lane="E12_0" startPos="8.27" endPos="18.27" power="10000.00" efficiency="1.00"/>
    <chargingStation id="cs_5" lane="E24_0" startPos="5.65" endPos="15.65" power="10000.00" efficiency="1.00"/>
    <chargingStation id="cs_6" lane="E36_0" startPos="7.40" endPos="17.40" power="10000.00" efficiency="1.00"/>
    <chargingStation id="cs_7" lane="E32_0" startPos="6.67" endPos="16.67" power="10000.00" efficiency="1.00"/>
    <!-- Other additionals -->
    <rerouter id="rr_0" edges="697983200" pos="6300.91,1421.42">
        <interval begin="0.00" end="3600.00">
            <destProbReroute id="697983203" probability="1.00"/>
        </interval>
    </rerouter>
</additional>

