<?xml version="1.0" encoding="UTF-8"?>

<!-- generated on 2023-05-18 20:32:03 by Eclipse SUMO netedit Version 1.16.0
-->

<routes xmlns:xsi="http://www.w3.org/2001/XMLSchema-instance" xsi:noNamespaceSchemaLocation="http://sumo.dlr.de/xsd/routes_file.xsd">
    <!-- Routes -->
    <route id="basa_don" edges="697983200 697983203"/>
    <route id="r_0" edges="368620842#10 E9 E12 E13 368620842#10.79"/>
    <route id="r_1" edges="-368620842#10 E14 E20 E21 -368620842#100.25"/>
    <route id="r_10" edges="697983203 1060234726#2 697983206#0 697983206#1 697983206#3 369625684#4 369625682#0 369625682#1 369625682#1.37 369625682#1.62 369625682#2 369625682#3 369625682#4 369625682#5 369625682#6 369625682#7 369625682#8 369625682#9 368610900#3 605645768 -605645768 368610900#4 -605645767 605647265 -724024576#8 -724024576#7 -724024576#6 -724024576#5 -724024576#3 -724024576#2 -724024576#1 212712115#0 212712115#1 212712115#2 212712115#3 212712115#4 212712115#5 212712115#6 368611134#0 368611134#1 368611134#2 369628890#1 369628890#2 369628890#3 -669466787 -368620842#7 -368620842#6 -368620842#5 212712101#0 212712101#1 212712101#2 369628890#7 369628890#8 369628890#9 369628890#10 369628890#10.86 369628890#10.115 369625684#2 369625683#0 E1 369625683#4 1060234726#4 697983200"/>
    <route id="r_11" edges="697983203 1060234726#2 1060234726#3 368610899 -212712097#14 -212712097#13 -212712097#12 -212712097#11 -212712097#10 -642121509#2 -642121509#1 -642121509#0 -212712085#0 212712108 369625683#4 1060234726#4 697983200"/>
    <route id="r_12" edges="369628890#10 E45 E46 E47 369628890#10.115"/>
    <route id="r_13" edges="212712097#4 E41 E43 E44 212712097#5"/>
    <route id="r_14" edges="-212712097#5 E38 E39 E40 -212712097#40"/>
    <route id="r_2" edges="668817633 E22 E24 E25 6688176330"/>
    <route id="r_3" edges="-668817633 E26 E32 E33 -6688176330"/>
    <route id="r_4" edges="369625682#1 E34 E36 E37 369625682#1.62"/>
    <route id="r_5" edges="697983203 1060234726#2 697983206#0 -697983196 212712085#0 212712085#1 642121509#1 642121509#2 -212712097#7 -212712097#6 -212712097#5 -212712097#4 -212712097#40 -212712097#3 -212712097#2 -212712097#0 -368620842#0 212712118#0 212712118#1 212712118#2 369625683#0 E1 369625683#4 1060234726#4 697983200"/>
    <route id="r_6" edges="697983203 1060234726#2 1060234726#3 368610899 -212712097#14 212712085#0 -727290763#1 -727290764 642121509#1 642121509#2 212712097#10 212712097#11 212712097#12 212712097#13 212712097#14 374420990 1060234726#1 1060234726#2 697983206#0 697983206#1 697983206#3 369625684#4 369625682#0 369625682#1 369625682#1.37 369625682#1.62 -212712095#2 -212712095#1 -212712095#0 -212712083#3 -212712083#2 -212712083#1 -212712083#0 -212712119#2 -212712119#1 212712104#0 212712104#1 212712104#2 -668817633 -668817633.80 -6688176330 368620842#6 368620842#7 669466787 369628890#4 369628890#5 369628890#6 -212712101#2 -212712101#1 -212712101#0 -368620842#3 212712095#0 212712095#1 212712095#2 369628890#10 369628890#10.86 369628890#10.115 369625684#2 369625683#0 E1 369625683#4 1060234726#4 697983200"/>
    <route id="r_7" edges="697983203 1060234726#2 697983206#0 697983206#1 697983206#3 369625684#4 369625682#0 369625682#1 369625682#1.37 369625682#1.62 369625682#2 369625682#3 369625682#4 369625682#5 369625682#6 369625682#7 369625682#8 369625682#9 368610900#3 605645768 605645767 368610900#5 368610900#1 369628890#0 369628890#1 369628890#2 369628890#3 369628890#4 369628890#5 369628890#6 369628890#7 369628890#8 369628890#9 369628890#10 369628890#10.86 369628890#10.115 369625684#2 369625683#0 E1 -697983196 212712108 369625683#4 1060234726#4 697983200"/>
    <route id="r_8" edges="697983203 1060234726#2 697983206#0 697983206#1 697983206#3 369625684#4 369625682#0 369625682#1 369625682#1.37 369625682#1.62 369625682#2 369625682#3 369625682#4 369625682#5 369625682#6 369625682#7 369625682#8 369625682#9 368610900#3 368610900#4 369628891 212712103 -368620842#10 -368620842#100 -368620842#100.25 -368620842#9 -368620842#7 -368620842#6 -368620842#5 212712101#0 212712101#1 212712101#2 369628890#7 369628890#8 369628890#9 369628890#10 369628890#10.86 369628890#10.115 369625684#2 369625683#0 E1 369625683#4 1060234726#4 697983200"/>
    <route id="r_9" edges="697983203 1060234726#2 697983206#0 697983206#1 697983206#3 369625684#4 369625684#1 212712098#0 212712098#1 368620842#0 368620842#1 368620842#3 212712119#0 212712104#0 212712104#1 212712104#2 212712104#3 724024576#1 724024576#2 724024576#3 724024576#5 724024576#6 724024576#7 724024576#8 -724024576#8 -724024576#7 -724024576#6 -724024576#5 -724024576#3 -724024576#2 -724024576#1 724024576#1 724024576#2 724024576#3 724024576#5 724024576#6 724024576#7 724024576#8 -605647265 605645767 369628891 212712103 605647262#0 605647262#1 605647262#2 605647262#3 -605647262#3 -605647262#2 -605647262#1 -605647262#0 -368620842#10 -368620842#100 -368620842#100.25 -368620842#9 -368620842#7 -368620842#6 -368620842#5 -368620842#3 -368620842#1 212712097#0 212712097#2 212712097#3 212712097#4 212712097#4.15 212712097#5 212712097#6 212712097#7 212712097#10 212712097#11 212712097#12 212712097#13 212712097#14 374420990 697983200"/>
    <!-- Vehicles, persons and containers (sorted by depart) -->
    <vehicle id="v_0" depart="0.00" route="r_5"/>
    <vehicle id="v_1" depart="0.00" route="r_6"/>
    <vehicle id="v_2" depart="0.00" route="r_7"/>
    <vehicle id="v_3" depart="0.00" route="r_8"/>
</routes>
