<?xml version="1.0" encoding="UTF-8"?>

<!-- generated on 2023-05-16 21:04:38 by Eclipse SUMO netedit Version 1.16.0
-->

<additional xmlns:xsi="http://www.w3.org/2001/XMLSchema-instance" xsi:noNamespaceSchemaLocation="http://sumo.dlr.de/xsd/additional_file.xsd">
    <!-- StoppingPlaces -->
    <chargingStation id="cs_0" lane="-368620842#10_0" startPos="49.75" endPos="59.75"/>
    <chargingStation id="cs_1" lane="-212712097#4_0" startPos="14.34" endPos="24.34"/>
    <chargingStation id="cs_2" lane="212712097#4_0" startPos="23.56" endPos="33.56"/>
    <chargingStation id="cs_3" lane="369625682#1_1" startPos="42.77" endPos="52.77"/>
    <chargingStation id="cs_4" lane="368620842#10_0" startPos="52.25" endPos="62.25"/>
    <chargingStation id="cs_5" lane="-668817633_0" startPos="81.30" endPos="91.30"/>
    <chargingStation id="cs_6" lane="369625682#1_0" startPos="40.56" endPos="50.56"/>
    <chargingStation id="cs_7" lane="668817633_0" startPos="69.65" endPos="79.65"/>
    <!-- Other additionals -->
    <rerouter id="rr_0" edges="697983200" pos="6300.91,1421.42">
        <interval begin="0.00" end="3600.00">
            <destProbReroute id="697983203" probability="1.00"/>
        </interval>
    </rerouter>
    <!-- Shapes -->
    <poi id="poi_0" color="red" layer="202.00" lane="605647265_0" pos="330.19"/>
    <poi id="poi_1" color="red" layer="202.00" lane="212712104#3_0" pos="288.93"/>
    <poi id="poi_10" color="red" layer="202.00" lane="369625682#2_0" pos="43.35"/>
    <poi id="poi_12" color="red" layer="202.00" lane="369625682#1_0" pos="85.24"/>
    <poi id="poi_13" color="red" layer="202.00" lane="369628890#10_0" pos="60.15"/>
    <poi id="poi_14" color="red" layer="202.00" lane="697983206#1_0" pos="157.38"/>
    <poi id="poi_15" color="red" layer="202.00" lane="E1_0" pos="73.30"/>
    <poi id="poi_16" color="red" layer="202.00" lane="-212712104#3_0" pos="353.22"/>
    <poi id="poi_2" color="red" layer="202.00" lane="-368620842#9_0" pos="153.66"/>
    <poi id="poi_3" color="red" layer="202.00" lane="-368620842#5_0" pos="113.39"/>
    <poi id="poi_4" color="red" layer="202.00" lane="-212712097#2_0" pos="142.59"/>
    <poi id="poi_5" color="red" layer="202.00" lane="-212712097#7_0" pos="62.96"/>
    <poi id="poi_6" color="red" layer="202.00" lane="-212712097#12_0" pos="37.46"/>
    <poi id="poi_7" color="red" layer="202.00" lane="-642121509#0_0" pos="121.29"/>
    <poi id="poi_8" color="red" layer="202.00" lane="212712097#14_0" pos="76.61"/>
    <poi id="poi_9" color="red" layer="202.00" lane="212712108_0" pos="109.23"/>
</additional>
