<?xml version="1.0" encoding="UTF-8"?>

<!-- generated on 2023-05-16 18:49:52 by Eclipse SUMO netedit Version 1.16.0
<configuration xmlns:xsi="http://www.w3.org/2001/XMLSchema-instance" xsi:noNamespaceSchemaLocation="http://sumo.dlr.de/xsd/netconvertConfiguration.xsd">

    <input>
        <sumocfg-file value="C:\Users\volka\Desktop\SUMO\Osmangazi\Final\final.sumocfg"/>
        <additional-files value="C:\Users\volka\Desktop\SUMO\Osmangazi\Final\osm.add.xml"/>
        <route-files value="C:\Users\volka\Desktop\SUMO\Osmangazi\Final\final.rou.xml"/>
        <sumo-net-file value="C:\Users\volka\Desktop\SUMO\Osmangazi\Final\osm.net.xml"/>
    </input>

    <output>
        <output-file value="C:\Users\volka\Desktop\SUMO\Osmangazi\Final\osm.net.xml"/>
    </output>

    <processing>
        <geometry.min-radius.fix.railways value="false"/>
        <geometry.max-grade.fix value="false"/>
        <offset.disable-normalization value="true"/>
        <lefthand value="0"/>
    </processing>

    <junctions>
        <no-turnarounds value="true"/>
        <junctions.corner-detail value="5"/>
        <junctions.limit-turn-speed value="5.50"/>
        <rectangular-lane-cut value="0"/>
    </junctions>

    <pedestrian>
        <walkingareas value="0"/>
    </pedestrian>

</configuration>
-->

<net version="1.16" junctionCornerDetail="5" limitTurnSpeed="5.50" xmlns:xsi="http://www.w3.org/2001/XMLSchema-instance" xsi:noNamespaceSchemaLocation="http://sumo.dlr.de/xsd/net_file.xsd">

    <location netOffset="-278956.86,-4401932.92" convBoundary="4318.26,802.58,6313.31,1446.44" origBoundary="30.420349,39.739526,30.513622,39.759971" projParameter="+proj=utm +zone=36 +ellps=WGS84 +datum=WGS84 +units=m +no_defs"/>

    <type id="highway.bridleway" priority="1" numLanes="1" speed="2.78" allow="pedestrian" oneway="1" width="2.00"/>
    <type id="highway.bus_guideway" priority="1" numLanes="1" speed="27.78" allow="bus" oneway="1"/>
    <type id="highway.cycleway" priority="1" numLanes="1" speed="5.56" allow="bicycle" oneway="0" width="1.00"/>
    <type id="highway.footway" priority="1" numLanes="1" speed="2.78" allow="pedestrian" oneway="1" width="2.00"/>
    <type id="highway.ford" priority="1" numLanes="1" speed="2.78" allow="army" oneway="0"/>
    <type id="highway.living_street" priority="2" numLanes="1" speed="2.78" disallow="tram rail_urban rail rail_electric rail_fast ship" oneway="0"/>
    <type id="highway.motorway" priority="14" numLanes="2" speed="39.44" allow="private emergency authority army vip passenger hov taxi bus coach delivery truck trailer motorcycle evehicle custom1 custom2" oneway="1"/>
    <type id="highway.motorway_link" priority="9" numLanes="1" speed="22.22" allow="private emergency authority army vip passenger hov taxi bus coach delivery truck trailer motorcycle evehicle custom1 custom2" oneway="1"/>
    <type id="highway.path" priority="1" numLanes="1" speed="5.56" allow="pedestrian bicycle" oneway="0" width="2.00"/>
    <type id="highway.pedestrian" priority="1" numLanes="1" speed="2.78" allow="pedestrian" oneway="1" width="2.00"/>
    <type id="highway.primary" priority="12" numLanes="2" speed="27.78" disallow="tram rail_urban rail rail_electric rail_fast ship" oneway="0"/>
    <type id="highway.primary_link" priority="7" numLanes="1" speed="22.22" disallow="tram rail_urban rail rail_electric rail_fast ship" oneway="0"/>
    <type id="highway.raceway" priority="15" numLanes="2" speed="83.33" allow="vip" oneway="0"/>
    <type id="highway.residential" priority="3" numLanes="1" speed="13.89" disallow="tram rail_urban rail rail_electric rail_fast ship" oneway="0"/>
    <type id="highway.secondary" priority="11" numLanes="1" speed="27.78" disallow="tram rail_urban rail rail_electric rail_fast ship" oneway="0"/>
    <type id="highway.secondary_link" priority="6" numLanes="1" speed="22.22" disallow="tram rail_urban rail rail_electric rail_fast ship" oneway="0"/>
    <type id="highway.service" priority="1" numLanes="1" speed="5.56" allow="pedestrian delivery bicycle" oneway="0"/>
    <type id="highway.stairs" priority="1" numLanes="1" speed="1.39" allow="pedestrian" oneway="1" width="2.00"/>
    <type id="highway.step" priority="1" numLanes="1" speed="1.39" allow="pedestrian" oneway="1" width="2.00"/>
    <type id="highway.steps" priority="1" numLanes="1" speed="1.39" allow="pedestrian" oneway="1" width="2.00"/>
    <type id="highway.tertiary" priority="10" numLanes="1" speed="22.22" disallow="tram rail_urban rail rail_electric rail_fast ship" oneway="0"/>
    <type id="highway.tertiary_link" priority="5" numLanes="1" speed="22.22" disallow="tram rail_urban rail rail_electric rail_fast ship" oneway="0"/>
    <type id="highway.track" priority="1" numLanes="1" speed="5.56" allow="pedestrian motorcycle moped bicycle" oneway="0"/>
    <type id="highway.trunk" priority="13" numLanes="2" speed="27.78" disallow="pedestrian bicycle tram rail_urban rail rail_electric rail_fast ship" oneway="0"/>
    <type id="highway.trunk_link" priority="8" numLanes="1" speed="22.22" disallow="pedestrian bicycle tram rail_urban rail rail_electric rail_fast ship" oneway="0"/>
    <type id="highway.unclassified" priority="4" numLanes="1" speed="13.89" disallow="tram rail_urban rail rail_electric rail_fast ship" oneway="0"/>
    <type id="highway.unsurfaced" priority="1" numLanes="1" speed="8.33" disallow="tram rail_urban rail rail_electric rail_fast ship" oneway="0"/>
    <type id="railway.highspeed" priority="21" numLanes="1" speed="69.44" allow="rail_fast" oneway="1"/>
    <type id="railway.light_rail" priority="19" numLanes="1" speed="27.78" allow="rail_urban" oneway="1"/>
    <type id="railway.preserved" priority="16" numLanes="1" speed="27.78" allow="rail" oneway="1"/>
    <type id="railway.rail" priority="20" numLanes="1" speed="44.44" allow="rail" oneway="1"/>
    <type id="railway.subway" priority="18" numLanes="1" speed="27.78" allow="rail_urban" oneway="1"/>
    <type id="railway.tram" priority="17" numLanes="1" speed="13.89" allow="tram" oneway="1"/>

    <edge id=":2225294551_0" function="internal">
        <lane id=":2225294551_0_0" index="0" disallow="tram rail_urban rail rail_electric rail_fast ship" speed="3.91" length="2.47" shape="4322.30,819.98 4321.64,820.09 4321.16,820.38 4320.86,820.86 4320.74,821.52"/>
    </edge>
    <edge id=":2225294551_1" function="internal">
        <lane id=":2225294551_1_0" index="0" disallow="tram rail_urban rail rail_electric rail_fast ship" speed="3.65" length="1.30" shape="4322.30,819.98 4321.19,819.28"/>
    </edge>
    <edge id=":2225294551_4" function="internal">
        <lane id=":2225294551_4_0" index="0" disallow="tram rail_urban rail rail_electric rail_fast ship" speed="3.65" length="3.37" shape="4321.19,819.28 4321.08,819.21 4320.66,818.42 4321.03,817.61 4322.21,816.78"/>
    </edge>
    <edge id=":2225294551_2" function="internal">
        <lane id=":2225294551_2_0" index="0" disallow="tram rail_urban rail rail_electric rail_fast ship" speed="6.09" length="7.40" shape="4317.55,821.41 4317.90,819.43 4318.79,818.00 4320.23,817.11 4322.21,816.78"/>
    </edge>
    <edge id=":2225294551_3" function="internal">
        <lane id=":2225294551_3_0" index="0" disallow="tram rail_urban rail rail_electric rail_fast ship" speed="3.65" length="1.44" shape="4317.55,821.41 4318.39,820.24"/>
    </edge>
    <edge id=":2225294551_5" function="internal">
        <lane id=":2225294551_5_0" index="0" disallow="tram rail_urban rail rail_electric rail_fast ship" speed="3.65" length="3.23" shape="4318.39,820.24 4319.20,819.87 4319.99,820.29 4320.74,821.52"/>
    </edge>
    <edge id=":2225294552_0" function="internal">
        <lane id=":2225294552_0_0" index="0" disallow="tram rail_urban rail rail_electric rail_fast ship" speed="6.50" length="9.08" shape="4692.15,813.87 4691.76,811.40 4690.67,809.66 4688.90,808.65 4686.44,808.36"/>
    </edge>
    <edge id=":2225294552_1" function="internal">
        <lane id=":2225294552_1_0" index="0" disallow="tram rail_urban rail rail_electric rail_fast ship" speed="7.95" length="14.29" shape="4692.15,813.87 4692.64,809.97 4694.26,807.20 4697.02,805.55 4700.92,805.02"/>
    </edge>
    <edge id=":2225294552_2" function="internal">
        <lane id=":2225294552_2_0" index="0" disallow="tram rail_urban rail rail_electric rail_fast ship" speed="6.45" length="9.03" shape="4700.89,808.22 4698.43,808.55 4696.69,809.60 4695.66,811.35 4695.35,813.82"/>
    </edge>
    <edge id=":2225294552_3" function="internal">
        <lane id=":2225294552_3_0" index="0" disallow="tram rail_urban rail rail_electric rail_fast ship" speed="13.89" length="14.46" shape="4700.89,808.22 4686.44,808.36"/>
    </edge>
    <edge id=":2225294552_4" function="internal">
        <lane id=":2225294552_4_0" index="0" disallow="tram rail_urban rail rail_electric rail_fast ship" speed="13.89" length="14.58" shape="4686.35,805.16 4700.92,805.02"/>
    </edge>
    <edge id=":2225294552_5" function="internal">
        <lane id=":2225294552_5_0" index="0" disallow="tram rail_urban rail rail_electric rail_fast ship" speed="7.99" length="4.21" shape="4686.35,805.16 4690.23,805.61 4690.49,805.76"/>
    </edge>
    <edge id=":2225294552_6" function="internal">
        <lane id=":2225294552_6_0" index="0" disallow="tram rail_urban rail rail_electric rail_fast ship" speed="7.99" length="10.07" shape="4690.49,805.76 4693.02,807.20 4694.73,809.94 4695.35,813.82"/>
    </edge>
    <edge id=":2225294558_0" function="internal">
        <lane id=":2225294558_0_0" index="0" disallow="tram rail_urban rail rail_electric rail_fast ship" speed="13.89" length="0.22" shape="4819.22,827.83 4819.22,827.61"/>
    </edge>
    <edge id=":2225294558_1" function="internal">
        <lane id=":2225294558_1_0" index="0" disallow="tram rail_urban rail rail_electric rail_fast ship" speed="13.89" length="0.31" shape="4822.41,827.49 4822.42,827.79"/>
    </edge>
    <edge id=":2225294604_0" function="internal">
        <lane id=":2225294604_0_0" index="0" disallow="tram rail_urban rail rail_electric rail_fast ship" speed="13.89" length="0.26" shape="4826.21,1044.26 4826.21,1044.00"/>
    </edge>
    <edge id=":2225294604_1" function="internal">
        <lane id=":2225294604_1_0" index="0" disallow="tram rail_urban rail rail_electric rail_fast ship" speed="13.89" length="0.31" shape="4829.40,1043.88 4829.41,1044.19"/>
    </edge>
    <edge id=":2225294627_0" function="internal">
        <lane id=":2225294627_0_0" index="0" disallow="tram rail_urban rail rail_electric rail_fast ship" speed="13.89" length="0.30" shape="4704.53,1143.91 4704.53,1144.21"/>
    </edge>
    <edge id=":2225294627_1" function="internal">
        <lane id=":2225294627_1_0" index="0" disallow="tram rail_urban rail rail_electric rail_fast ship" speed="13.89" length="0.20" shape="4701.33,1144.18 4701.33,1143.97"/>
    </edge>
    <edge id=":2225294628_0" function="internal">
        <lane id=":2225294628_0_0" index="0" disallow="tram rail_urban rail rail_electric rail_fast ship" speed="13.89" length="0.30" shape="4829.03,1159.77 4829.03,1159.47"/>
    </edge>
    <edge id=":2225294628_1" function="internal">
        <lane id=":2225294628_1_0" index="0" disallow="tram rail_urban rail rail_electric rail_fast ship" speed="13.89" length="0.30" shape="4832.23,1159.41 4832.23,1159.71"/>
    </edge>
    <edge id=":2225294648_0" function="internal">
        <lane id=":2225294648_0_0" index="0" disallow="tram rail_urban rail rail_electric rail_fast ship" speed="13.89" length="0.17" shape="6249.84,1176.34 6249.75,1176.19"/>
    </edge>
    <edge id=":2225294648_1" function="internal">
        <lane id=":2225294648_1_0" index="0" disallow="tram rail_urban rail rail_electric rail_fast ship" speed="13.89" length="0.29" shape="6252.38,1174.38 6252.54,1174.62"/>
    </edge>
    <edge id=":2225294672_0" function="internal">
        <lane id=":2225294672_0_0" index="0" disallow="tram rail_urban rail rail_electric rail_fast ship" speed="6.62" length="9.23" shape="4830.99,1245.64 4830.50,1243.15 4829.35,1241.39 4827.53,1240.37 4825.05,1240.10"/>
    </edge>
    <edge id=":2225294672_1" function="internal">
        <lane id=":2225294672_1_0" index="0" disallow="tram rail_urban rail rail_electric rail_fast ship" speed="13.89" length="14.55" shape="4830.99,1245.64 4830.35,1231.11"/>
    </edge>
    <edge id=":2225294672_2" function="internal">
        <lane id=":2225294672_2_0" index="0" disallow="tram rail_urban rail rail_electric rail_fast ship" speed="7.94" length="14.32" shape="4830.99,1245.64 4831.34,1241.72 4832.87,1238.89 4835.59,1237.16 4839.48,1236.52"/>
    </edge>
    <edge id=":2225294672_3" function="internal">
        <lane id=":2225294672_3_0" index="0" disallow="tram rail_urban rail rail_electric rail_fast ship" speed="3.65" length="4.67" shape="4830.99,1245.64 4831.72,1244.40 4832.50,1243.96 4833.32,1244.32 4834.18,1245.48"/>
    </edge>
    <edge id=":2225294672_4" function="internal">
        <lane id=":2225294672_4_0" index="0" disallow="tram rail_urban rail rail_electric rail_fast ship" speed="6.43" length="9.03" shape="4839.54,1239.72 4837.08,1240.12 4835.37,1241.21 4834.41,1243.00 4834.18,1245.48"/>
    </edge>
    <edge id=":2225294672_5" function="internal">
        <lane id=":2225294672_5_0" index="0" disallow="tram rail_urban rail rail_electric rail_fast ship" speed="13.89" length="14.50" shape="4839.54,1239.72 4825.05,1240.10"/>
    </edge>
    <edge id=":2225294672_6" function="internal">
        <lane id=":2225294672_6_0" index="0" disallow="tram rail_urban rail rail_electric rail_fast ship" speed="8.08" length="4.07" shape="4839.54,1239.72 4835.63,1239.25 4835.52,1239.18"/>
    </edge>
    <edge id=":2225294672_7" function="internal">
        <lane id=":2225294672_7_0" index="0" disallow="tram rail_urban rail rail_electric rail_fast ship" speed="3.65" length="1.44" shape="4839.54,1239.72 4838.32,1238.95"/>
    </edge>
    <edge id=":2225294672_16" function="internal">
        <lane id=":2225294672_16_0" index="0" disallow="tram rail_urban rail rail_electric rail_fast ship" speed="8.08" length="10.25" shape="4835.52,1239.18 4832.80,1237.65 4831.04,1234.94 4830.35,1231.11"/>
    </edge>
    <edge id=":2225294672_17" function="internal">
        <lane id=":2225294672_17_0" index="0" disallow="tram rail_urban rail rail_electric rail_fast ship" speed="3.65" length="3.23" shape="4838.32,1238.95 4837.91,1238.15 4838.29,1237.35 4839.48,1236.52"/>
    </edge>
    <edge id=":2225294672_8" function="internal">
        <lane id=":2225294672_8_0" index="0" disallow="tram rail_urban rail rail_electric rail_fast ship" speed="6.61" length="9.21" shape="4833.54,1231.00 4833.99,1233.45 4835.13,1235.19 4836.96,1236.22 4839.48,1236.52"/>
    </edge>
    <edge id=":2225294672_9" function="internal">
        <lane id=":2225294672_9_0" index="0" disallow="tram rail_urban rail rail_electric rail_fast ship" speed="13.89" length="14.49" shape="4833.54,1231.00 4834.18,1245.48"/>
    </edge>
    <edge id=":2225294672_10" function="internal">
        <lane id=":2225294672_10_0" index="0" disallow="tram rail_urban rail rail_electric rail_fast ship" speed="8.00" length="14.20" shape="4833.54,1231.00 4833.13,1234.87 4831.57,1237.67 4828.88,1239.42 4825.05,1240.10"/>
    </edge>
    <edge id=":2225294672_11" function="internal">
        <lane id=":2225294672_11_0" index="0" disallow="tram rail_urban rail rail_electric rail_fast ship" speed="3.65" length="4.67" shape="4833.54,1231.00 4832.79,1232.23 4832.00,1232.65 4831.19,1232.28 4830.35,1231.11"/>
    </edge>
    <edge id=":2225294672_12" function="internal">
        <lane id=":2225294672_12_0" index="0" disallow="tram rail_urban rail rail_electric rail_fast ship" speed="6.50" length="9.03" shape="4824.94,1236.90 4827.38,1236.47 4829.09,1235.36 4830.08,1233.57 4830.35,1231.11"/>
    </edge>
    <edge id=":2225294672_13" function="internal">
        <lane id=":2225294672_13_0" index="0" disallow="tram rail_urban rail rail_electric rail_fast ship" speed="13.89" length="14.54" shape="4824.94,1236.90 4839.48,1236.52"/>
    </edge>
    <edge id=":2225294672_14" function="internal">
        <lane id=":2225294672_14_0" index="0" disallow="tram rail_urban rail rail_electric rail_fast ship" speed="8.09" length="4.12" shape="4824.94,1236.90 4828.81,1237.32 4829.01,1237.43"/>
    </edge>
    <edge id=":2225294672_15" function="internal">
        <lane id=":2225294672_15_0" index="0" disallow="tram rail_urban rail rail_electric rail_fast ship" speed="3.65" length="1.44" shape="4824.94,1236.90 4826.17,1237.66"/>
    </edge>
    <edge id=":2225294672_18" function="internal">
        <lane id=":2225294672_18_0" index="0" disallow="tram rail_urban rail rail_electric rail_fast ship" speed="8.09" length="10.20" shape="4829.01,1237.43 4831.64,1238.89 4833.43,1241.61 4834.18,1245.48"/>
    </edge>
    <edge id=":2225294672_19" function="internal">
        <lane id=":2225294672_19_0" index="0" disallow="tram rail_urban rail rail_electric rail_fast ship" speed="3.65" length="3.23" shape="4826.17,1237.66 4826.59,1238.45 4826.22,1239.26 4825.05,1240.10"/>
    </edge>
    <edge id=":2225294673_0" function="internal">
        <lane id=":2225294673_0_0" index="0" disallow="tram rail_urban rail rail_electric rail_fast ship" speed="13.89" length="14.22" shape="4704.35,1249.67 4703.93,1235.46"/>
    </edge>
    <edge id=":2225294673_1" function="internal">
        <lane id=":2225294673_1_0" index="0" disallow="tram rail_urban rail rail_electric rail_fast ship" speed="8.03" length="3.85" shape="4704.35,1249.67 4704.83,1245.85"/>
    </edge>
    <edge id=":2225294673_2" function="internal">
        <lane id=":2225294673_2_0" index="0" disallow="tram rail_urban rail rail_electric rail_fast ship" speed="3.65" length="1.44" shape="4704.35,1249.67 4705.13,1248.46"/>
    </edge>
    <edge id=":2225294673_9" function="internal">
        <lane id=":2225294673_9_0" index="0" disallow="tram rail_urban rail rail_electric rail_fast ship" speed="8.03" length="10.25" shape="4704.83,1245.85 4706.42,1243.08 4709.11,1241.36 4712.91,1240.69"/>
    </edge>
    <edge id=":2225294673_10" function="internal">
        <lane id=":2225294673_10_0" index="0" disallow="tram rail_urban rail rail_electric rail_fast ship" speed="3.65" length="3.23" shape="4705.13,1248.46 4705.92,1248.04 4706.73,1248.43 4707.55,1249.62"/>
    </edge>
    <edge id=":2225294673_3" function="internal">
        <lane id=":2225294673_3_0" index="0" disallow="tram rail_urban rail rail_electric rail_fast ship" speed="6.54" length="9.00" shape="4713.02,1243.89 4710.59,1244.32 4708.87,1245.41 4707.86,1247.18 4707.55,1249.62"/>
    </edge>
    <edge id=":2225294673_4" function="internal">
        <lane id=":2225294673_4_0" index="0" disallow="tram rail_urban rail rail_electric rail_fast ship" speed="8.00" length="14.11" shape="4713.02,1243.89 4709.18,1243.47 4706.39,1241.93 4704.64,1239.26 4703.93,1235.46"/>
    </edge>
    <edge id=":2225294673_5" function="internal">
        <lane id=":2225294673_5_0" index="0" disallow="tram rail_urban rail rail_electric rail_fast ship" speed="3.65" length="4.67" shape="4713.02,1243.89 4711.80,1243.13 4711.37,1242.34 4711.74,1241.53 4712.91,1240.69"/>
    </edge>
    <edge id=":2225294673_6" function="internal">
        <lane id=":2225294673_6_0" index="0" disallow="tram rail_urban rail rail_electric rail_fast ship" speed="6.51" length="8.98" shape="4707.13,1235.33 4707.58,1237.74 4708.69,1239.44 4710.47,1240.42 4712.91,1240.69"/>
    </edge>
    <edge id=":2225294673_7" function="internal">
        <lane id=":2225294673_7_0" index="0" disallow="tram rail_urban rail rail_electric rail_fast ship" speed="13.89" length="14.30" shape="4707.13,1235.33 4707.55,1249.62"/>
    </edge>
    <edge id=":2225294673_8" function="internal">
        <lane id=":2225294673_8_0" index="0" disallow="tram rail_urban rail rail_electric rail_fast ship" speed="3.65" length="1.44" shape="4707.13,1235.33 4706.38,1236.56"/>
    </edge>
    <edge id=":2225294673_11" function="internal">
        <lane id=":2225294673_11_0" index="0" disallow="tram rail_urban rail rail_electric rail_fast ship" speed="3.65" length="3.23" shape="4706.38,1236.56 4705.60,1236.99 4704.78,1236.63 4703.93,1235.46"/>
    </edge>
    <edge id=":2225294691_0" function="internal">
        <lane id=":2225294691_0_0" index="0" disallow="tram rail_urban rail rail_electric rail_fast ship" speed="13.89" length="12.89" shape="6205.64,1237.85 6202.34,1236.96 6199.38,1236.35 6196.38,1235.94 6192.97,1235.66"/>
    </edge>
    <edge id=":2225294691_1" function="internal">
        <lane id=":2225294691_1_0" index="0" disallow="tram rail_urban rail rail_electric rail_fast ship" speed="8.30" length="3.68" shape="6205.64,1237.85 6202.40,1236.38 6202.31,1236.29"/>
    </edge>
    <edge id=":2225294691_2" function="internal">
        <lane id=":2225294691_2_0" index="0" disallow="tram rail_urban rail rail_electric rail_fast ship" speed="3.65" length="1.44" shape="6205.64,1237.85 6204.71,1236.75"/>
    </edge>
    <edge id=":2225294691_9" function="internal">
        <lane id=":2225294691_9_0" index="0" disallow="tram rail_urban rail rail_electric rail_fast ship" speed="8.30" length="9.78" shape="6202.31,1236.29 6200.23,1234.18 6199.13,1231.24 6199.09,1227.56"/>
    </edge>
    <edge id=":2225294691_10" function="internal">
        <lane id=":2225294691_10_0" index="0" disallow="tram rail_urban rail rail_electric rail_fast ship" speed="3.65" length="3.23" shape="6204.71,1236.75 6204.55,1235.87 6205.16,1235.21 6206.53,1234.78"/>
    </edge>
    <edge id=":2225294691_3" function="internal">
        <lane id=":2225294691_3_0" index="0" disallow="tram rail_urban rail rail_electric rail_fast ship" speed="6.85" length="8.89" shape="6202.27,1227.95 6202.28,1230.40 6203.00,1232.36 6204.42,1233.81 6206.53,1234.78"/>
    </edge>
    <edge id=":2225294691_4" function="internal">
        <lane id=":2225294691_4_0" index="0" disallow="tram rail_urban rail rail_electric rail_fast ship" speed="8.01" length="13.60" shape="6202.27,1227.95 6201.31,1231.53 6199.44,1234.00 6196.66,1235.38 6192.97,1235.66"/>
    </edge>
    <edge id=":2225294691_5" function="internal">
        <lane id=":2225294691_5_0" index="0" disallow="tram rail_urban rail rail_electric rail_fast ship" speed="3.65" length="4.67" shape="6202.27,1227.95 6201.33,1229.05 6200.48,1229.35 6199.74,1228.85 6199.09,1227.56"/>
    </edge>
    <edge id=":2225294691_6" function="internal">
        <lane id=":2225294691_6_0" index="0" disallow="tram rail_urban rail rail_electric rail_fast ship" speed="6.52" length="8.65" shape="6193.17,1232.47 6195.52,1232.29 6197.29,1231.41 6198.48,1229.84 6199.09,1227.56"/>
    </edge>
    <edge id=":2225294691_7" function="internal">
        <lane id=":2225294691_7_0" index="0" disallow="tram rail_urban rail rail_electric rail_fast ship" speed="13.89" length="13.59" shape="6193.17,1232.47 6196.69,1232.77 6199.92,1233.22 6203.12,1233.87 6206.53,1234.78"/>
    </edge>
    <edge id=":2225294691_8" function="internal">
        <lane id=":2225294691_8_0" index="0" disallow="tram rail_urban rail rail_electric rail_fast ship" speed="3.65" length="1.44" shape="6193.17,1232.47 6194.32,1233.35"/>
    </edge>
    <edge id=":2225294691_11" function="internal">
        <lane id=":2225294691_11_0" index="0" disallow="tram rail_urban rail rail_electric rail_fast ship" speed="3.65" length="3.23" shape="6194.32,1233.35 6194.67,1234.17 6194.22,1234.94 6192.97,1235.66"/>
    </edge>
    <edge id=":2225294705_0" function="internal">
        <lane id=":2225294705_0_0" index="0" disallow="tram rail_urban rail rail_electric rail_fast ship" speed="13.89" length="3.85" shape="4707.92,1271.02 4707.95,1272.16 4708.03,1272.94 4708.17,1273.71 4708.42,1274.83"/>
    </edge>
    <edge id=":2225294705_1" function="internal">
        <lane id=":2225294705_1_0" index="0" disallow="tram rail_urban rail rail_electric rail_fast ship" speed="3.65" length="1.44" shape="4707.92,1271.02 4707.14,1272.23"/>
    </edge>
    <edge id=":2225294705_4" function="internal">
        <lane id=":2225294705_4_0" index="0" disallow="tram rail_urban rail rail_electric rail_fast ship" speed="3.65" length="3.23" shape="4707.14,1272.23 4706.35,1272.65 4705.54,1272.26 4704.72,1271.07"/>
    </edge>
    <edge id=":2225294705_2" function="internal">
        <lane id=":2225294705_2_0" index="0" disallow="tram rail_urban rail rail_electric rail_fast ship" speed="13.89" length="5.20" shape="4704.55,1276.26 4704.74,1274.73 4704.79,1273.68 4704.76,1272.62 4704.72,1271.07"/>
    </edge>
    <edge id=":2225294705_3" function="internal">
        <lane id=":2225294705_3_0" index="0" disallow="tram rail_urban rail rail_electric rail_fast ship" speed="5.47" length="4.50" shape="4704.55,1276.26 4705.41,1271.84"/>
    </edge>
    <edge id=":2225294705_5" function="internal">
        <lane id=":2225294705_5_0" index="0" disallow="tram rail_urban rail rail_electric rail_fast ship" speed="5.47" length="7.21" shape="4705.41,1271.84 4706.35,1270.13 4707.35,1271.13 4708.42,1274.83"/>
    </edge>
    <edge id=":2225294724_0" function="internal">
        <lane id=":2225294724_0_0" index="0" disallow="tram rail_urban rail rail_electric rail_fast ship" speed="9.79" length="22.03" shape="6272.79,1266.39 6271.53,1263.95 6267.76,1262.24 6261.48,1261.28 6252.69,1261.06"/>
    </edge>
    <edge id=":2225294724_1" function="internal">
        <lane id=":2225294724_1_0" index="0" disallow="tram rail_urban rail rail_electric rail_fast ship" speed="11.93" length="24.24" shape="6272.79,1266.39 6271.57,1263.28 6267.94,1260.07 6261.88,1256.76 6253.39,1253.35"/>
    </edge>
    <edge id=":2225294724_2" function="internal">
        <lane id=":2225294724_2_0" index="0" disallow="tram rail_urban rail rail_electric rail_fast ship" speed="13.89" length="15.87" shape="6272.79,1266.39 6272.58,1250.52"/>
    </edge>
    <edge id=":2225294724_3" function="internal">
        <lane id=":2225294724_3_0" index="0" disallow="tram rail_urban rail rail_electric rail_fast ship" speed="3.65" length="1.44" shape="6272.79,1266.39 6273.59,1265.19"/>
    </edge>
    <edge id=":2225294724_16" function="internal">
        <lane id=":2225294724_16_0" index="0" disallow="tram rail_urban rail rail_electric rail_fast ship" speed="3.65" length="3.23" shape="6273.59,1265.19 6274.39,1264.79 6275.19,1265.19 6275.99,1266.39"/>
    </edge>
    <edge id=":2225294724_4" function="internal">
        <lane id=":2225294724_4_0" index="0" disallow="tram rail_urban rail rail_electric rail_fast ship" speed="13.89" length="15.95" shape="6275.78,1250.44 6275.99,1266.39"/>
    </edge>
    <edge id=":2225294724_5" function="internal">
        <lane id=":2225294724_5_0" index="0" disallow="tram rail_urban rail rail_electric rail_fast ship" speed="10.98" length="2.48" shape="6275.78,1250.44 6275.07,1252.82"/>
    </edge>
    <edge id=":2225294724_6" function="internal">
        <lane id=":2225294724_6_0" index="0" disallow="tram rail_urban rail rail_electric rail_fast ship" speed="9.57" length="2.18" shape="6275.78,1250.44 6275.05,1252.50"/>
    </edge>
    <edge id=":2225294724_7" function="internal">
        <lane id=":2225294724_7_0" index="0" disallow="tram rail_urban rail rail_electric rail_fast ship" speed="3.65" length="1.44" shape="6275.78,1250.44 6275.00,1251.66"/>
    </edge>
    <edge id=":2225294724_17" function="internal">
        <lane id=":2225294724_17_0" index="0" disallow="tram rail_urban rail rail_electric rail_fast ship" speed="10.98" length="25.39" shape="6275.07,1252.82 6274.43,1254.96 6270.13,1258.23 6262.88,1260.27 6252.69,1261.06"/>
    </edge>
    <edge id=":2225294724_18" function="internal">
        <lane id=":2225294724_18_0" index="0" disallow="tram rail_urban rail rail_electric rail_fast ship" speed="9.57" length="24.37" shape="6275.05,1252.50 6274.03,1255.35 6269.10,1256.91 6261.90,1255.96 6253.39,1253.35"/>
    </edge>
    <edge id=":2225294724_19" function="internal">
        <lane id=":2225294724_19_0" index="0" disallow="tram rail_urban rail rail_electric rail_fast ship" speed="3.65" length="3.23" shape="6275.00,1251.66 6274.22,1252.08 6273.41,1251.70 6272.58,1250.52"/>
    </edge>
    <edge id=":2225294724_8" function="internal">
        <lane id=":2225294724_8_0" index="0" disallow="tram rail_urban rail rail_electric rail_fast ship" speed="8.40" length="20.15" shape="6254.46,1250.33 6262.45,1252.79 6268.13,1253.64 6271.50,1252.88 6272.58,1250.52"/>
    </edge>
    <edge id=":2225294724_9" function="internal">
        <lane id=":2225294724_9_0" index="0" disallow="tram rail_urban rail rail_electric rail_fast ship" speed="12.81" length="28.08" shape="6254.46,1250.33 6263.88,1254.22 6270.61,1258.19 6274.64,1262.24 6275.99,1266.39"/>
    </edge>
    <edge id=":2225294724_10" function="internal">
        <lane id=":2225294724_10_0" index="0" disallow="tram rail_urban rail rail_electric rail_fast ship" speed="6.09" length="15.01" shape="6254.46,1250.33 6257.43,1252.85 6257.97,1256.42 6256.31,1259.63 6252.69,1261.06"/>
    </edge>
    <edge id=":2225294724_11" function="internal">
        <lane id=":2225294724_11_0" index="0" disallow="tram rail_urban rail rail_electric rail_fast ship" speed="3.65" length="4.67" shape="6254.46,1250.33 6255.33,1251.49 6255.43,1252.38 6254.79,1253.00 6253.39,1253.35"/>
    </edge>
    <edge id=":2225294724_12" function="internal">
        <lane id=":2225294724_12_0" index="0" disallow="tram rail_urban rail rail_electric rail_fast ship" speed="5.85" length="13.67" shape="6252.64,1257.86 6257.51,1257.50 6259.26,1256.64 6257.89,1255.25 6253.39,1253.35"/>
    </edge>
    <edge id=":2225294724_13" function="internal">
        <lane id=":2225294724_13_0" index="0" disallow="tram rail_urban rail rail_electric rail_fast ship" speed="9.99" length="22.88" shape="6252.64,1257.86 6261.43,1257.29 6267.68,1255.88 6271.40,1253.62 6272.58,1250.52"/>
    </edge>