<?xml version="1.0" encoding="UTF-8"?>

<!-- generated on 2023-05-18 22:45:59 by Eclipse SUMO netedit Version 1.16.0
-->

<additional xmlns:xsi="http://www.w3.org/2001/XMLSchema-instance" xsi:noNamespaceSchemaLocation="http://sumo.dlr.de/xsd/additional_file.xsd">
    <!-- StoppingPlaces -->
    <chargingStation id="cs_0" lane="E20_0" startPos="8.11" endPos="18.11"/>
    <chargingStation id="cs_1" lane="E43_0" startPos="12.60" endPos="22.60"/>
    <chargingStation id="cs_2" lane="E39_0" startPos="12.87" endPos="22.87"/>
    <chargingStation id="cs_3" lane="E46_0" startPos="8.56" endPos="18.56"/>
    <chargingStation id="cs_4" lane="E12_0" startPos="8.27" endPos="18.27"/>
    <chargingStation id="cs_5" lane="E24_0" startPos="5.65" endPos="15.65"/>
    <chargingStation id="cs_6" lane="E36_0" startPos="7.40" endPos="17.40"/>
    <chargingStation id="cs_7" lane="E32_0" startPos="6.67" endPos="16.67"/>
    <!-- Other additionals -->
    <rerouter id="rr_0" edges="697983200" pos="6300.91,1421.42">
        <interval begin="0.00" end="3600.00">
            <destProbReroute id="697983203" probability="1.00"/>
        </interval>
    </rerouter>
    <!-- Shapes -->
    <poi id="poi_0" color="red" layer="202.00" lane="605647265_0" pos="330.19"/>
    <poi id="poi_1" color="red" layer="202.00" lane="212712104#3_0" pos="288.93"/>
    <poi id="poi_10" color="red" layer="202.00" lane="369625682#2_0" pos="43.35"/>
    <poi id="poi_12" color="red" layer="202.00" lane="369625682#1_0" pos="29.85"/>
    <poi id="poi_13" color="red" layer="202.00" lane="369628890#10_0" pos="60.15"/>
    <poi id="poi_14" color="red" layer="202.00" lane="697983206#1_0" pos="157.38"/>
    <poi id="poi_15" color="red" layer="202.00" lane="E1_0" pos="73.30"/>
    <poi id="poi_16" color="red" layer="202.00" lane="-212712104#3_0" pos="353.22"/>
    <poi id="poi_2" color="red" layer="202.00" lane="-368620842#9_0" pos="153.66"/>
    <poi id="poi_3" color="red" layer="202.00" lane="-368620842#5_0" pos="113.39"/>
    <poi id="poi_4" color="red" layer="202.00" lane="-212712097#2_0" pos="142.59"/>
    <poi id="poi_5" color="red" layer="202.00" lane="-212712097#7_0" pos="62.96"/>
    <poi id="poi_6" color="red" layer="202.00" lane="-212712097#12_0" pos="37.46"/>
    <poi id="poi_7" color="red" layer="202.00" lane="-642121509#0_0" pos="121.29"/>
    <poi id="poi_8" color="red" layer="202.00" lane="212712097#14_0" pos="76.61"/>
    <poi id="poi_9" color="red" layer="202.00" lane="212712108_0" pos="109.23"/>
</additional>
